powerflow/Codes/PF_Formulation/resultados_csv/14/9bus_transformer_fields/barras.csv
caso,script,bus_id,vm_pu,va_rad,pd_pu,qd_pu,pg_pu,qg_pu,bus_type
9bus_transformer_fields.pwf,14,1,1.0999995735493262,-1.0159871124044262e-30,0.0,0.0,1.5684423973512254,0.08254254585954086,3
9bus_transformer_fields.pwf,14,2,1.0999977031189532,-0.050959575595073636,0.0,0.0,0.8794555118832298,-0.0472064922763343,2
9bus_transformer_fields.pwf,14,3,1.0982186614224054,-0.05512385040154956,0.0,0.0,0.7251947517004229,-0.1732752311267272,2
9bus_transformer_fields.pwf,14,4,1.0987511442654097,-0.07481771632380992,0.0,0.0,0.0,0.0,1
9bus_transformer_fields.pwf,14,5,1.0783152475850557,-0.13929526084228475,1.25,0.5,0.0,0.0,1
9bus_transformer_fields.pwf,14,6,1.0916046204300252,-0.1248447961040243,0.9,0.3,0.0,0.0,1
9bus_transformer_fields.pwf,14,7,1.1038115192825395,-0.09624470753862399,0.0,0.0,0.0,0.0,1
9bus_transformer_fields.pwf,14,8,1.0952512740188414,-0.1277949642919301,1.0,0.35,0.0,0.0,1
9bus_transformer_fields.pwf,14,9,1.1081402889568366,-0.09005050656992429,0.0,0.0,0.0,0.0,1
